10
Coordinates from ORCA-job sn2
  O   -0.87018299413341     -0.81158455492093      1.15514510319265
  C   1.19893768262279     -0.61663719066795     -0.11410572705769
  C   -0.18773848103508     -0.17145061378286      0.25242672544865
  C   -0.94064465270621      0.95593884950699     -0.21372793126308
  H   1.88445424875265      0.25394340497173     -0.05387867241313
  H   1.56122510086915     -1.41829649140964      0.55438476887056
  H   1.22502971541957     -0.96104859405627     -1.16877970670817
  H   -1.85226738132851      0.64369211639743     -0.76019439343640
  H   -0.45578501050503      1.84096084296893     -0.66109635117671
  H   -1.56302822795593      0.28448223099257      1.00982618454332
