10
Coordinates from ORCA-job pr
  O   -0.40243693553358     -1.20973396512145      0.18909244074048
  C   1.42905514511993      0.28873447226777      0.00996088074478
  C   -0.06268117409248      0.12344980560890      0.03286711724793
  C   -0.96091859292035      1.11452552354203     -0.08075780863193
  H   1.70284676150265      1.34083680594065     -0.11293006034864
  H   1.86961298743037     -0.08818680886008      0.94346702263279
  H   1.86503296174376     -0.29282838385818     -0.81421782558366
  H   -2.03372241208503      0.92612621852906     -0.05648035362986
  H   -0.63591758519224      2.14278324150948     -0.20224222021098
  H   -1.37479115597304     -1.28629690955819      0.19892080703909
