10
Coordinates from ORCA-job ts
  O   -0.48272733394667     -1.11908121153773      0.48946499927336
  C   1.47137574792807      0.23531942571987     -0.01867830452525
  C   -0.00437006180694      0.03346456880600      0.11789134278032
  C   -1.07133274893542      0.96315971318435     -0.05873355636013
  H   1.74479708878767      1.22297763644738      0.37467171131420
  H   2.03980602360928     -0.54312477497773      0.49903462314807
  H   1.74053932644824      0.23567489613295     -1.08517043602313
  H   -1.72783553353372      0.69982393972996     -0.89574200791903
  H   -0.91634543508529      2.03910484580741      0.03951456616140
  H   -1.52678707346523     -0.33363903931245      0.60491706215021
