10

O         -0.50138       -1.12005        0.49255
C          1.47068        0.23472       -0.01716
C         -0.00678        0.05928        0.11433
C         -1.05462        0.97354       -0.06461
H          1.74499        1.22203        0.37482
H          2.04219       -0.54175        0.50325
H          1.74050        0.23284       -1.08285
H         -1.78533        0.66773       -0.82802
H         -0.88466        2.04680       -0.00826
H         -1.36951       -0.71573        0.62363
